LTspice 26.0.1 for Windows
Circuit: C:\Users\atkmm\Documents\LTspice\Draft2.net
Start Time: Tue Mar 24 15:33:11 2026
solver = Normal
Maximum thread count: 16
tnom = 27
temp = 27
method = trap
Compress1stOrder = true
Compress2ndOrder = true
Direct Newton iteration succeeded in finding operating point.
Total elapsed time: 3.498 seconds.

Files loaded:
C:\Users\atkmm\Documents\LTspice\Draft2.net
C:\Users\atkmm\AppData\Local\LTspice\lib\cmp\standard.dio
C:\Users\atkmm\AppData\Local\LTspice\lib\cmp\standard.mos
C:\Users\atkmm\AppData\Local\LTspice\lib\sub\NE555.sub

