LTspice 24.1.9 for Windows
Circuit: C:\Users\kiefer\Desktop\ELECTENG_310\Project 1\ELECTENG-310-Project-1-Group-2-\kiefer\Receiver_updated - Alexander.net
Start Time: Tue Apr 28 15:53:30 2026
solver = Normal
Maximum thread count: 22
tnom = 27
temp = 27
method = trap
WARNING: Node nc_01 is floating.
WARNING: Node nc_02 is floating.

Early termination of direct N-R iteration.
Direct Newton iteration failed to find .op point.  (Use ".option noopiter" to skip.)
Starting Gmin stepping
Gmin = 10
vernier = 0.5
Gmin = 1.86414
vernier = 0.25
vernier = 0.125
vernier = 0.0625
vernier = 0.03125
Gmin = 1.82123
vernier = 0.015625
vernier = 0.0078125
vernier = 0.00390625
Gmin = 1.81764
vernier = 0.00195312
vernier = 0.000976562
vernier = 0.000488281
Gmin = 0
Gmin = 0
Gmin stepping succeeded in finding the operating point.

Total elapsed time: 0.948 seconds.

Files loaded:
C:\Users\kiefer\Desktop\ELECTENG_310\Project 1\ELECTENG-310-Project-1-Group-2-\kiefer\Receiver_updated - Alexander.net
C:\Users\kiefer\AppData\Local\LTspice\lib\cmp\standard.dio
C:\Users\kiefer\Desktop\ELECTENG_310\Project 1\ELECTENG-310-Project-1-Group-2-\kiefer\TLC081.mod

