LTspice 24.1.9 for Windows
Circuit: C:\Users\kiefer\Desktop\ELECTENG_310\310 lab (just me)\kiefer\Receiver.net
Start Time: Thu Apr 23 01:12:57 2026
solver = Normal
Maximum thread count: 22
tnom = 27
temp = 27
method = trap
Early termination of direct N-R iteration.
Direct Newton iteration failed to find .op point.  (Use ".option noopiter" to skip.)
Starting Gmin stepping
Gmin = 10
vernier = 0.5
vernier = 0.25
Gmin = 2.09715
vernier = 0.125
vernier = 0.0625
vernier = 0.03125
vernier = 0.015625
vernier = 0.0078125
vernier = 0.00390625
vernier = 0.00195312
vernier = 0.000976562
vernier = 0.000488281
Gmin = 0
Gmin = 0
Gmin stepping succeeded in finding the operating point.

Total elapsed time: 3.138 seconds.

Files loaded:
C:\Users\kiefer\Desktop\ELECTENG_310\310 lab (just me)\kiefer\Receiver.net
C:\Users\kiefer\AppData\Local\LTspice\lib\cmp\standard.dio
C:\Users\kiefer\Desktop\ELECTENG_310\310 lab (just me)\kiefer\TLC081.mod

