LTspice 26.0.1 for Windows
Circuit: C:\Users\mikae\Documents\ELECTENG-310-Project-1-Group-2-\kiefer\Receiver.net
Start Time: Fri Apr 24 15:20:00 2026
solver = Normal
Maximum thread count: 12
tnom = 27
temp = 27
method = trap
Early termination of direct N-R iteration.
Direct Newton iteration failed to find operating point.
Starting Gmin stepping
Gmin stepping succeeded in finding the operating point.

Total elapsed time: 2.520 seconds.

Files loaded:
C:\Users\mikae\Documents\ELECTENG-310-Project-1-Group-2-\kiefer\Receiver.net
C:\Users\mikae\AppData\Local\LTspice\lib\cmp\standard.dio
C:\Users\mikae\Documents\ELECTENG-310-Project-1-Group-2-\kiefer\TLC081.mod

