LTspice 26.0.1 for Windows
Circuit: C:\Users\Uni\Downloads\Frequency Modulation\Draft1.net
Start Time: Mon Mar 23 00:37:19 2026
solver = Normal
Maximum thread count: 12
tnom = 27
temp = 27
method = trap
Direct Newton iteration failed to find operating point.
Starting Gmin stepping
Gmin stepping succeeded in finding the operating point.

Total elapsed time: 0.169 seconds.

Files loaded:
C:\Users\Uni\Downloads\Frequency Modulation\Draft1.net
C:\Users\Uni\Downloads\Frequency Modulation\LM358.MOD

