LTspice 26.0.1 for Windows
Circuit: C:\Users\Uni\Downloads\Frequency Modulation\FM CCT.net
Start Time: Mon Mar 23 00:46:06 2026
solver = Normal
Maximum thread count: 12
tnom = 27
temp = 27
method = trap
Early termination of direct N-R iteration.
Direct Newton iteration failed to find operating point.
Starting Gmin stepping
Gmin stepping failed to find operating point. Use".option gminsteps=0" to skip all Gmin stepping.
Starting source stepping with srcstepmethod=0
Trouble finding operating point....skipping operating point for Transient analysis.

Simulation stopped by user.
Total elapsed time: 28.462 seconds.

Files loaded:
C:\Users\Uni\Downloads\Frequency Modulation\FM CCT.net
C:\Users\Uni\Downloads\Frequency Modulation\LF353.301
C:\Users\Uni\Downloads\Frequency Modulation\TL082.301

