LTspice 26.0.1 for Windows
Circuit: C:\Users\atkmm\Documents\Assignments\ELECTENG-310-Project-1-Group-2-\Working Transmitter\310 first edition.net
Start Time: Mon Mar 23 12:38:17 2026
solver = Normal
Maximum thread count: 16
tnom = 27
temp = 27
method = trap
Compress1stOrder = true
Compress2ndOrder = true
Early termination of direct N-R iteration.
Direct Newton iteration failed to find operating point.
Starting Gmin stepping
Gmin stepping succeeded in finding the operating point.

Changing Tseed to 9.76562e-09
Changing Tseed to 9.76563e-11
Changing Tseed to 9.76562e-08
Changing Tseed to 9.76562e-12
Changing Tseed to 9.76563e-07
Changing Tseed to 9.76562e-13
Changing Tseed to 9.76562e-06
Changing Tseed to 9.76563e-14
Changing Tseed to 9.76563e-05
Changing Tseed to 9.76562e-15
Changing Tseed to 0.000976562
Changing Tseed to 9.76562e-16

Simulation stopped by user.
Total elapsed time: 6.165 seconds.

Files loaded:
C:\Users\atkmm\Documents\Assignments\ELECTENG-310-Project-1-Group-2-\Working Transmitter\310 first edition.net
C:\Users\atkmm\Documents\Assignments\ELECTENG-310-Project-1-Group-2-\Working Transmitter\TLC081.mod

