LTspice 26.0.1 for Windows
Circuit: C:\Users\mikae\Documents\ELECTENG-310-Project-1-Group-2-\Working Transmitter\Transmitter with mosfet model added.net
Start Time: Wed Apr 22 19:38:55 2026
solver = Normal
Maximum thread count: 12
tnom = 27
temp = 27
method = trap
Early termination of direct N-R iteration.
Direct Newton iteration failed to find operating point.
Starting Gmin stepping
Gmin stepping succeeded in finding the operating point.

Changing Tseed to 9.76562e-09
Changing Tseed to 9.76563e-11
Changing Tseed to 9.76562e-08
Changing Tseed to 9.76562e-12
Changing Tseed to 9.76563e-07
Changing Tseed to 9.76562e-13
Changing Tseed to 9.76562e-06
Changing Tseed to 9.76563e-14
Changing Tseed to 9.76563e-05
Changing Tseed to 9.76562e-15
Changing Tseed to 0.000976562
Changing Tseed to 9.76562e-16
Total elapsed time: 1.630 seconds.

Files loaded:
C:\Users\mikae\Documents\ELECTENG-310-Project-1-Group-2-\Working Transmitter\Transmitter with mosfet model added.net
C:\Users\mikae\AppData\Local\LTspice\lib\cmp\standard.dio
C:\Users\mikae\AppData\Local\LTspice\lib\cmp\standard.mos
C:\Users\mikae\Documents\ELECTENG-310-Project-1-Group-2-\Working Transmitter\TLC081.mod

